897701	Telekom_Romania_Mobile
2556258	Telekabel
8404925	Teleki_Library
9716940	Teleki
12832795	Telekom_TV
12907831	Telekom_Malaysia_Cycling_Team
13189437	Telek
21857540	Telekids
22782864	Telekinesis!
24757283	Telekinesis_(disambiguation)
35632424	Telekom_Networks_Malawi
35644182	Teleki_Blanka_Gymnasium
38545193	Telekom_Slovenije
52487533	Telekom_Museum
61423917	Telekeyevo
63751243	Telek_(album)
68924255	Telekom_Austria_Affair
74261652	Telekitonga
77549802	Telekom_Deutschland
77810112	Teleke_Lauti
6486874	Telelogic
11977754	Telele
17998668	Telelove
28906160	Telelka_Mosque
49119991	Telelift
70083254	Telela_Kebede
465389	Telemos
564305	Telempath
613045	Telemax_(tower)
2219314	Telemark_Battalion
2362026	Telemark_Canal
2743737	Telemedia
2843764	Telemundo_Deportes
2893132	Telemundo_Puerto_Rico
3074604	Telematch
3387829	TeleMagic
3433600	Telemundo_Internacional
3773879	Telemark_landing
4428251	Telemetry_of_a_Fallen_Angel
4461515	Telemax_(TV_network)
6213833	Telemundo_51
7406757	Telemark_University_College
7676934	Telemarksavisa
8205729	Telemetry_intelligence
8614306	Telemarketing_fraud
8870995	Telemadrid
9018915	Telemark_Kollektivtrafikk
9142499	Telemark_Bilruter
9309313	Telematics_for_Libraries_Program
9536773	TeleMation_Inc.
10064812	Telemetry_Orchestra
10535945	Telemundo_Studios
11578119	Teleme_cheese
12779278	TeleMessage
13492807	Telematic_art
13727721	Telem_(Israeli_settlement)
13997725	Telemiracle
14071336	Telemundo_of_Puerto_Rico_Studios
14438265	Telemark_Museum
15614114	Telemachos_Kanthos
17049166	Telemusik
17480620	Telematic_performance
19366598	Telemaco_(Sor)
21094879	Telemach_(Slovenia)
21440408	Telemark_County_Municipality
22222323	Telemark_Lodge
22598966	Telemiami
23402252	Telemarkfe
23527765	Telembí_River
23988221	Telemiades
27240339	Telematics_Freedom_Foundation
27557829	Télémagino
28111045	Telemarketing_and_Consumer_Fraud_and_Abuse_Prevention_Act
29062453	Telêmaco_Borba_Airport
30783581	Telemeter_(pay_television)
31555632	Telemark_Hospital_Trust
32984923	TELEMAC
33658602	Telémaco_Susini
35619394	Telemedicine_and_Advanced_Technology_Research_Center_(United_States_Army)
36828137	Telematics_2.0
38212444	Telemarken_Lutheran_Church
38806187	Telemach_(Bosnia_and_Herzegovina)
39592737	Telematic_control_unit
40925011	Télémaque_(Destouches)
40931995	Télémaque_(Campra)
42071361	Telemark_(waltz)
42892278	Telemetry_(company)
44758840	Telémachos_Alexiou
47946997	Telemicro
49032281	Teleman
49065002	Telema
49065260	Telema_tenella
51150018	Telemedicine_Act_1997
51778222	Telemark_Research_Institute
52730484	Telemofila
54229505	Telemaco_(Mayr)
55302723	Telemaco
55969382	Telemundo_Station_Group
58885658	Telemann_Museum
60135310	Telemundo_Africa
60341072	Telemung
61246163	Telemedellín
61825108	Telemba
63451105	Télémaque_Lambrino
64188880	Telemundo_12
65744930	Telemedicine_service_providers
66058693	Telemann_Prize
66270912	Telemark_World_Championships
67057720	Telemilênio
68081432	Telemundo_Kids
69180817	Telemba_(lake)
69790660	Telemax
69790966	Telêmaco_Borba_Cable_Car
69907302	Telemach
70127329	Telemark_District_Court
71075413	Telemark_(Storting_constituency)
72563236	TeleMAT
74455635	Telemarketers_(TV_series)
77306421	Telemedia_InteracTV
78295207	Télémaque_dans_l'île_de_Calypso
82397016	Teleman_(surname)
417196	Telenor_Avidi
782028	Telenovela_(disambiguation)
1693174	Telenursing
1885384	Telenet_Group
2004395	Telengits
2195073	Telenoticias_Puerto_Rico
2990507	Telent
4421721	Telenet_Japan
4618588	Telenet
4794763	Telenor_Pakistan
5361649	Telenor_Sverige
9535081	Telengard
10074626	Telenor_Kystradio
10577405	Telenius
10709506	Telenet_(disambiguation)
13102735	Telenka
18327742	Telen
19193660	Telenorte
21335374	Telen_River
21813227	Telenordia
22703611	Telenor_Cinclus
23566092	TeleNorba
23645558	Telenomeuta
24889606	Telenorte_(TV_channel)
25067653	Telenor_India
26936209	Telenomus_remus
27206789	Telén
29288045	Telenor_Objects
29403020	Telen_River_(Indonesia)
31875563	Telenoche
33609519	TeleNiños
33745139	Telenovela_Channel
35037962	Telenassa
41261026	Telenor_Culture_Award
42134617	Telenueve
43487235	Telenovela_(TV_channel)
44390225	Telenoid_R1
45240405	Telenomus_fariai
50279026	Telenor_Myanmar
52571350	Telena_Cruz_Nelson
52894413	Telenominae
52894432	Telenomus
52925265	Telenomus_podisi
53061502	Telenor_(disambiguation)
57730047	Telenipara
58547756	Telengit-Sortogoy,_Altai_Republic
63053233	Telenoche_(Uruguayan_TV_program)
69843065	Telenova
71379739	Telenomus_acares
73006388	Telenet_Shooting_Collection
77026396	Telengit_language
79499637	Telenova_(Italian_TV_channel)
83243005	Telenorte_La_Serena_y_Coquimbo
83245320	Telenorte_Iquique
83272728	Telenorte_Antofagasta
83280750	Telenorte_Arica
1247702	Teleomorph,_anamorph_and_holomorph
2220846	Teleogenesis
3521886	Teleocichla_cinderella
5181094	Teleocrater
5364872	Teleogramma
5674155	Teleoconch
7154655	Teleogryllus_oceanicus
7636045	Teleocichla
17780037	Teleorhinus
26842293	Teleochilus_royanus
26890561	Teleost_leptins
26961231	Teleochilus
30463334	Teleopsia
31075398	Teleogryllus
33012831	Teleon
35287906	Teleological_behaviorism
37836030	Teleophthalmology
39358230	Teleost_hatching_enzyme
39420789	Teleoperator_Retrieval_System
45253919	Teleogryllus_commodus
47658255	Teleopsis
51126696	Teleolophus
51762463	Teleopsis_sykesii
52157407	TeLEOS-1
52953944	Teleogramma_obamaorum
56559955	Teleonemia_scrupulosa
56559957	Teleonemia
56852328	Teleorhinus_cyaneus
56857807	Teleorhinus_(bug)
57268692	Teleonemia_nigrina
57310447	Teleonemia_montivaga
57323806	Teleorhinus_tephrosicola
62215538	Teleopsis_dalmanni
63197782	Teleochilus_gracillimus
63636710	Teleosauroidea
64666592	Teleopsis_amnoni
66778780	Teleosteomorpha
74211747	Teleocephala
78632936	Teleopsis_selecta
81583820	Teleochilus_balcombensis
81583916	Teleochilus_comptus
81584290	Teleochilus_denseliratus
81584354	Teleochilus_duplicatus
83179988	Teleogryllus_mitratus
58001	Teleportation_(disambiguation)
187421	Telepylos
216998	Telephone_Systems_International
275222	Telephone_keypad
296007	Telephone_number_mapping
305083	Telepresence
329608	Telephone_numbers_in_Greece
353516	Telephone_slamming
364370	Telephone_number_portability
403979	Telephone_desk
406703	Telephone_call
406709	Telephone_operator
627405	Telephone_numbering_plan
720356	Telephone_numbers_in_the_United_Kingdom
740046	Telephone_numbers_in_Australia
801728	Telephone_numbers_in_France
880435	Telephone_numbers_in_the_Netherlands
891050	Telephone_numbers_in_China
903686	Teleparallelism
940774	Telephone_numbers_in_Japan
946963	Telephone_line
988426	Telephone_Consumer_Protection_Act_of_1991
1486977	Telepen
1547489	Telephone_numbers_in_Colombia
1547505	Telephone_numbers_in_Hong_Kong
1624952	Telephone_number_pooling
1916141	Telephone_numbers_in_South_Africa
2201331	Telephone_exchange_names
2429619	Telephone_hook
2486825	Telephone_numbers_in_the_Republic_of_Ireland
2547955	Telephone_and_Data_Systems
2573945	Telephone_numbers_in_Singapore
2629465	Telephone_numbers_in_Cyprus
2854417	Telephone_counseling
3121484	Telep
3179390	Telephone_numbers_in_Bangladesh
3433001	Telephone_Preference_Service
3600775	Telepacífico
3600834	Telephones_Company_Building
3669365	Telephone_numbers_in_Romania
4055427	Telephone_numbers_in_Serbia
4084677	Telephone_numbers_in_Brazil
4099489	Telephone_numbers_in_Macau
4323028	Telephone_numbers_in_Turkey
4411700	Telephone_numbers_in_Azerbaijan
4539565	Telephone_prefix
5018486	Telephone_numbers_in_Slovakia
5101851	Telephone_numbers_in_Switzerland
5541786	Telephone_User_Part
5655147	Telephone_numbers_in_Montenegro
5859246	Telephony_application_server
5922211	Telephone_numbers_in_South_Korea
6027168	Telepsychiatry
6222524	Telephone_banking
6803252	Telephone_call_recording_laws
7343768	Telephone_numbers_in_New_Zealand
7436364	Telephone,_Texas
7455244	Telephone_numbers_in_the_Americas
7455266	Telephone_numbers_in_Oceania
7455543	Telephone_numbers_in_Europe
7455679	Telephone_numbers_in_Asia
7455708	Telephone_numbers_in_Africa
7657521	Telephone_numbers_in_Bosnia_and_Herzegovina
7982895	Telephony_service_provider
8206122	Telephone_Conversation
8261607	Telephone_numbers_in_Turkmenistan
8963240	Telephone_Records_and_Privacy_Protection_Act_of_2006
9249049	Telephone_numbers_in_Malaysia
9466471	Teleposta_Towers
9489007	Téléphérique_(Jounieh)
9569030	Telephone_numbers_in_Indonesia
9776171	Telephone_recording
9777031	Telephone_tapping_in_the_Eastern_Bloc
11231770	Teleport
11484560	Telephone_service
11762357	Telepathist
12114061	Telephoto_compression
12692623	Telephone_numbers_in_the_Philippines
12693515	Telephone_numbers_in_Chile
12693575	Telephone_numbers_in_Ecuador
12693609	Telephone_numbers_in_Spain
12693632	Telephone_numbers_in_Mexico
12708389	Telephone_numbers_in_Nigeria
12764859	Telephone_numbers_in_Denmark
12764882	Telephone_numbers_in_Luxembourg
12764898	Telephone_numbers_in_Portugal
12764923	Telephone_numbers_in_the_Czech_Republic
12764947	Telephone_numbers_in_Hungary
12764965	Telephone_numbers_in_Lithuania
12764978	Telephone_numbers_in_Poland
12765006	Telephone_numbers_in_Italy
12765028	Telephone_numbers_in_Finland
12765062	Telephone_numbers_in_Sweden
12765082	Telephone_numbers_in_Bulgaria
12765124	Telephone_numbers_in_Norway
12765218	Telephone_numbers_in_Ukraine
12765763	Telephone_numbers_in_Peru
12765886	Telephone_numbers_in_Sri_Lanka
12765919	Telephone_numbers_in_Yemen
12797140	Telephone_numbers_in_the_United_Arab_Emirates
12797180	Telephone_numbers_in_Israel
12797265	Telephone_numbers_in_Taiwan
12797316	Telephone_numbers_in_Timor-Leste
12797340	Telephone_numbers_in_Papua_New_Guinea
12813057	Telephone_numbers_in_Germany
12828813	Telephone_numbers_in_Greenland
12923850	Telephone_numbers_in_Pakistan
12924052	Telephone_numbers_in_Thailand
12924099	Telephone_numbers_in_Vietnam
12924220	Telephone_numbers_in_India
12925085	Telephone_numbers_in_Canada
12947217	Telephone_numbers_in_North_Korea
12947501	Telephone_numbers_in_Palestine
12947663	Telephone_numbers_in_Tanzania
12972210	Telephone_numbers_in_Liechtenstein
12972267	Telephone_numbers_in_Moldova
12972467	Telephone_numbers_in_Zimbabwe
12975109	Telephone_numbers_in_Russia
12987248	Telephone_numbers_in_Estonia
13034731	Telephone_numbers_in_Croatia
13041101	Telephone_numbers_in_Curaçao_and_the_Caribbean_Netherlands
13062448	Telephone_numbers_in_Iraq
13697337	Telephone_numbers_in_Togo
13923160	Telephone_numbers_in_Myanmar
14056453	Telephone_numbers_in_Cape_Verde
14146466	Telephone_numbers_in_Bahrain
14155024	Telephone_newspaper
14330744	Telephone_Herald
14550157	Telephata
14882525	Telephone_numbers_in_Iceland
14919475	Telephone_numbers_in_Egypt
14999883	Telephone_numbers_in_Iran
15114492	Telephone_numbers_in_Armenia
15192617	Telepoll
15213919	Telephone_numbers_in_Kenya
15229943	Telephone_numbers_in_Slovenia
15308179	Telephone_numbers_in_Botswana
15361551	Telephone_numbers_in_Uzbekistan
15382961	Telephone_numbers_in_Belgium
15448763	Telepossession
15590241	Telephone_numbers_in_Kuwait
15637090	Telephone_numbers_in_Lebanon
16816914	Telephone_numbers_in_Guatemala
16974246	Telephone_numbers_in_Angola
17014419	Telephone_numbers_in_Korea
17210091	Telephone_numbers_in_Saudi_Arabia
17310523	Teleplay_Modem
17413112	Telephone_numbers_in_Tonga
17651752	Telephone_numbers_in_Cuba
17670412	Telephone_numbers_in_Venezuela
18071025	Telephone_numbers_in_Oman
18140536	Telepathy_Shōjo_Ran_Jiken_Note
18528611	Telephone_numbers_in_Madagascar
18664737	Telephone_numbers_in_French_Polynesia
18670722	Telephone_numbers_in_Costa_Rica
18692480	Telephone_numbers_in_Uruguay
18773196	Telephone_access_of_Guantanamo_Bay_detainees
18790468	Telephone_number
18919153	Telephone_Transfer_Act_1911
18998075	Telephone_numbers_in_Monaco
18998228	Telephone_numbers_in_Andorra
19201193	Telepassport_Telecommunications
19625345	Telephone_numbers_in_Namibia
19786280	Telephone_numbers_in_Syria
19871327	Telephonoscope
19934868	Telephony_Server_Application_Programming_Interface
20013140	Telephone_numbers_in_Latvia
20111992	Telephone_numbers_in_Palau
20345678	Telephone_interpreting
20620374	Telephone_numbers_in_Kazakhstan
20872814	Telephone_Hills
21131488	Telephone_numbers_in_Vatican_City
21131692	Telephone_numbers_in_San_Marino
21441550	Telephone_Road
21742581	Telepholis
21857185	Telepathic_Wanderers
22348638	Telephone_numbers_in_Morocco
22396151	Telephone_numbers_in_Bolivia
22479317	Telephone_numbers_in_Lesotho
22757240	Telephone_numbers_in_Panama
23123228	Téléphérique_du_Salève
23455831	Telephone_numbers_in_Belarus
23506128	Teleprocessing_monitor
23690579	Telepathe
23922168	Telepresence_technology
24143590	Telephone_Operator_(film)
24311613	Telephone_phobia
24408941	Telephone_Pavilion_(Expo_67)
24792817	Telephone_numbers_in_Paraguay
24900168	Telephone_numbers_in_Jordan
25168239	Telephone_numbers_in_Georgia_(country)
25886881	Telephone_Exchange_Building_(Norwich,_Connecticut)
26256218	Telephone_VoIP_adapter
26537735	Telephone_numbers_in_Tuvalu
26582440	Telephone_numbers_in_Fiji
26751432	Telephone_Exchange_Building
26778339	Telephone_numbers_in_Uganda
26828911	Telephone_numbers_in_North_Macedonia
27116289	Telephone_numbers_in_Ghana
27116380	Telephone_numbers_in_Algeria
27128188	Telephone_numbers_in_Benin
27128386	Telephone_numbers_in_Burkina_Faso
27128450	Telephone_numbers_in_Burundi
27128498	Telephone_numbers_in_Cameroon
27128533	Telephone_numbers_in_the_Central_African_Republic
27128590	Telephone_numbers_in_Chad
27128618	Telephone_numbers_in_the_Comoros
27139613	Telephone_numbers_in_the_Democratic_Republic_of_the_Congo
27139699	Telephone_numbers_in_the_Republic_of_the_Congo
27139765	Telephone_numbers_in_Ivory_Coast
27139939	Telephone_numbers_in_Djibouti
27140001	Telephone_numbers_in_Equatorial_Guinea
27151373	Telephone_numbers_in_Eritrea
27151422	Telephone_numbers_in_Ethiopia
27151459	Telephone_numbers_in_Gabon
27151620	Telephone_numbers_in_the_Gambia
27151707	Telephone_numbers_in_Guinea
27151845	Telephone_numbers_in_Guinea-Bissau
27151883	Telephone_numbers_in_Liberia
27152239	Telephone_numbers_in_Libya
27177536	Telephone_numbers_in_Malawi
27193460	Telephone_numbers_in_Mali
27193519	Telephone_numbers_in_Mauritania
27193619	Telephone_numbers_in_Mauritius
27193847	Telephone_numbers_in_Mozambique
27193892	Telephone_numbers_in_Niger
27194077	Telephone_numbers_in_Rwanda
27194124	Telephone_numbers_in_São_Tomé_and_Príncipe
27194174	Telephone_numbers_in_Senegal
27194199	Telephone_numbers_in_Seychelles
27194492	Telephone_numbers_in_Sierra_Leone
27194546	Telephone_numbers_in_Somalia
27194651	Telephone_numbers_in_Sudan
27194766	Telephone_numbers_in_Eswatini
27194904	Telephone_numbers_in_Tunisia
27195239	Telephone_numbers_in_Zambia
27204063	Telephone_numbers_in_Ascension_Island
27244390	TelePrompTer_Corporation
27405581	Telephone_number_verification
27411143	Telephone_numbers_in_Gibraltar
27543327	Telephone_numbers_in_Northern_Cyprus
27829638	Teleport,_Amsterdam
28408546	Telepointer
28509784	Telephone_numbers_in_Cambodia
28752034	Telepathology
29260224	Telephone_numbers_in_Afghanistan
30103441	Telephone_Company_Building
30171668	Telephone_Co._Building_(Grand_Forks,_North_Dakota)
30446147	Telephone_numbers_in_Aruba
31588706	Telephone_country_code
31687527	Telephone_USA_of_Wisconsin
31830238	Telephone_numbers_in_Laos
32266280	Telephone_magneto
32365931	Telephone_numbers_in_South_Sudan
32582591	Teleportation_in_fiction
32821647	Telephone_numbers_in_Solomon_Islands
32823999	Telephone_numbers_in_the_Marshall_Islands
32824557	Telephone_numbers_in_the_Federated_States_of_Micronesia
32825013	Telephone_numbers_in_Nauru
32827134	Telephone_numbers_in_Tokelau
32828068	Telephone_numbers_in_New_Caledonia
32828279	Telephone_numbers_in_Norfolk_Island
32829256	Telephone_numbers_in_Vanuatu
32831665	Telephone_numbers_in_Wallis_and_Futuna
32831826	Telephone_numbers_in_Niue
32832265	Telephone_numbers_in_Samoa
32833039	Telephone_numbers_in_Kiribati
32833696	Telephone_numbers_in_the_Cook_Islands
32865896	Telephone_numbers_in_the_Maldives
32866506	Telephone_numbers_in_Qatar
32866944	Telephone_numbers_in_Bhutan
32867407	Telephone_numbers_in_Mongolia
32867782	Telephone_numbers_in_Nepal
32887509	Telephone_numbers_in_Brunei
32887927	Telephone_numbers_in_Tajikistan
32888279	Telephone_numbers_in_Kyrgyzstan
32911748	Telephone_numbers_in_the_Falkland_Islands
32912820	Telephone_numbers_in_Belize
32913989	Telephone_numbers_in_El_Salvador
32919170	Telephone_numbers_in_Honduras
32919589	Telephone_numbers_in_Nicaragua
32919859	Telephone_numbers_in_Haiti
32920907	Telephone_numbers_in_Guyana
32921561	Telephone_numbers_in_Suriname
32924423	Telephonat_Beni_Suef_SC
32938783	Telephone_numbers_in_the_British_Indian_Ocean_Territory
33039557	Telephone_numbers_in_Saint_Helena_and_Tristan_da_Cunha
33039595	Telephone_numbers_in_the_Faroe_Islands
33039655	Telephone_numbers_in_Kosovo
33039658	Telephone_numbers_in_Åland
33039679	Telephone_numbers_in_Svalbard
33039701	Telephone_numbers_in_the_Pitcairn_Islands
33039725	Telephone_numbers_in_Christmas_Island
33039729	Telephone_numbers_in_the_Cocos_(Keeling)_Islands
33039739	Telephone_numbers_in_South_Georgia_and_the_South_Sandwich_Islands
33041271	Telephone_numbers_in_the_Australian_Antarctic_Territory
33064512	Telephone_numbers_in_Ireland
35258497	Telephone_number_(mathematics)
35494476	Telepac
35832479	Telephanus
35937792	Telephone_Poles
36017068	Telephone_density
36361677	Telephone_Jim_Jesus
38358375	Telephone_Factory_Lofts
38658270	Telepinu_Proclamation
39107361	Telephone_numbers_in_the_Soviet_Union
40076768	Telepharmacy
40239640	Telephirca
40296356	Telephone_numbers_in_Georgia
40340161	Teleprompter_(horse)
40925212	Télèphe
41340047	Telephone_Pioneers_of_America_Park
42098825	Telephone_services_in_Turkey
43434571	Telephony_in_Greater_Manchester
44821814	Teleport_(Staten_Island)
46629176	Telephinidae
47091181	Telephone_numbers_in_Yugoslavia
48989342	Telephata_cheramopis
48989348	Telephata_ferruginula
48989350	Telephata_melanista
48989354	Telephata_nitens
49033169	Telephone_Advisory_Committees
49206894	Teleporter_(album)
49617467	Telephone_numbers_in_East_Germany
49881405	Telephone_Bill_and_the_Smooth_Operators
51400785	Telepathy_(He_Xuntian)
51838495	Telephone_Shilpa_Sangstha
52127689	Telephone_Calls
53039895	Telephlebiidae
53516199	Telephlebia
53534794	Telephlebia_brevicauda
53535005	Telephlebia_cyclops
53535151	Telephlebia_tryoni
53535487	Telephlebia_tillyardi
53535766	Telephlebia_godeffroyi
53536042	Telephlebia_undia
54024172	Telephone_(sternwheeler)
54805020	Telepsychology
55493870	Telepathy_(Cindy_Blackman_album)
55682309	Telephone_Booth_(song)
55688985	Telephone_(album)
56433976	Telephone_Thing
57317350	Telephanus_lecontei
57810923	Teleprompter_Corp._v._Columbia_Broadcasting
61423924	Telepanovo
61971192	Telepovo
62479017	Teleport_Bridge
63554520	Teleport_(software)
64586465	Telephium
65804770	Telephone_game_(game_theory)
65948744	Telephone_Exchange_metro_station
68000594	Teleportation_(album)
70241167	Télépro
74724410	Telepan
74978024	Telephony_copper_plant_retirement_in_the_United_Kingdom
75283244	Telepath_(musician)
75284740	Teleporter_(disambiguation)
76747778	Telepaís_(Bolivia)
77339976	Telephone_(Exo-SC_song)
78765597	Teleparty
81350714	Telephones_(song)
81515735	Telephone_Busy
81705793	Telephone_(novel)
83272619	Telepasión_Española
83444786	Telephus_of_Pergamum
13425480	Telequartz
305100	Telerobotics
1259733	Téléroman
3012765	Teleradiology
3145411	Telerama
3740624	Teleroboxer
3899172	Telerig_Nunatak
3977853	Teleroute
4490456	Telerehabilitation
6036504	Telera
11978989	Telerate
23675183	Telergma_Airport
27449134	Telerig_(village)
29663157	Telereal_Trillium
33137124	Telerop_2009_–_Es_ist_noch_was_zu_retten
42892041	Telerik
65284256	Teleritmo
67832170	Teleri_Wyn_Davies
70704549	Telera_(Spanish_bread)
72123887	Teleri_Bevan
72875880	Teleram
82604505	Telerama_(Ecuadorian_TV_channel)
210005	Telescreen
422180	Telescope_mount
499820	Telesphorus
531356	Télesphore-Damien_Bouchard
572842	Telesto_(mythology)
618536	Telesoftware
801840	Telestrator
1253147	Teleseism
1510064	Telescopefish
1576181	Telescope_Eyes
1591779	Telesat
1882175	Telescope_(goldfish)
2124819	Telescopio_Carlos_Sánchez
2266155	Telescopic_handler
2493361	Telesur_(Suriname)
2747925	Telesphorus_(general)
2850632	Télesphore_Fournier
2885804	Telescope_(disambiguation)
2900261	Telesis
3601633	Telescope_Peak
3707048	Telescript
3718388	Telesistema_Mexicano
3822961	Telesecundaria
4971497	Teleshopping
5735106	Telestes_turskyi
6262866	Telesaar
6938568	Telescope_octopus
6986504	Telescope_(TV_series)
8049448	Telescoping_(rail_cars)
8921111	Telescoping_effect
9383985	Telesystems_International_Wireless
9571751	Telescope_shiner
9571835	Telescreen_(company)
9605462	Telesforo_Trinidad
11166587	Telesport
11727322	Telescoping_(mechanics)
12184897	Telestes_croaticus
12184903	Telestes_fontinalis
12184917	Telestes_metohiensis
12185530	Telestes_montenigrinus
12185539	Telestes_pleurobipunctatus
12185543	Telestes_polylepis
12185552	Telestes_ukliva
12201228	TELES
12506827	Telescopus_hoogstraali
12639948	Teleseminars
12663337	Telescope_hornsnail
12880201	Télesphore-Eusèbe_Normand
12996890	Telestream
13280755	Teleste
13985259	Telesthesia
15109873	Télesphore_Arsenault
15347424	Telesphorus_of_Cosenza
15362619	Telestial
16820554	Telesistema_Informativo
16826422	Telesistema_11
18182366	Telescoping_generations
18375222	Telesarchus
18662108	Telesoft
18895331	Telescope_Array_Project
19083693	Télesphore_Simard
19083765	Télesphore_Simard_(Témiscamingue_politician)
19083874	Télesphore_Simard_(Quebec_City_politician)
19155636	Telesforo_Castillejos
19425828	Telescreen_(band)
19758390	Teleśnica_Oszwarowa
19840499	Telestar
19947968	Telesarchus_(disambiguation)
21171928	Telesensory_Systems
21410399	Telesarchus_of_Samos
21416202	Telesarchus_of_Aegina
21435682	Telesarchus_(military_commander)
21973380	Télesphore
22089033	Telesforo_Monzón
23279984	Telescopic_cylinder
23391170	Telestream_pipeline
23496254	Telescopus_semiannulatus
23513453	Telescoped_ammunition
25654198	Telescope_for_Habitable_Exoplanets_and_Interstellar/Intergalactic_Astronomy
25716941	Telescoping_Markov_chain
25865553	Telescope_Hill
26175995	Teleside_converter
27042596	Télesphore_St._Arnaud
27391010	Telescopium_telescopium
27391316	Telescopium_(gastropod)
28335282	Telesphere
28725773	Telesom
29843994	Telesterion_(album)
30338796	Telesp
31449877	Telespazio_VEGA_UK
33791815	Telesail_Technology
34534155	Telescopic_fork
35586204	Telesma_(band)
35934217	Telescope_(song)
36816794	Teles_Pires_Dam
38602922	Telescopium_in_Chinese_astronomy
38845928	Telescience
39112432	Telescopic_(album)
39601362	Telesm
40512708	TeleSAT
41756502	TeleSign
42129378	Telespazio_VEGA
43351802	Teleset
43394275	Telescope_(horse)
43768171	Telestory
44058410	Telescript_(programming_language)
44953503	Telescopic_Bridge,_Bridgwater
45197904	Telesta_Therapeutics
47638917	TeleSoft_Partners
48967066	Télesphore_Saint-Pierre
49004091	Telesys
49049154	TeleSoft
50196451	Teleshwarnagar
52113544	Telespazio_Germany
52581317	Telescopus_beetzi
52600091	Telescopus_rhinopoma
53060354	Telescopus_tessellatus
53666102	Télésonique
54070730	Telesphore_Dusabe
54424358	Teleskop
56639913	Telestes_dabar
56639934	Telestes_karsticus
56639973	Telestes_miloradi
58269941	Telescope_Lake
59328059	Telestrations
60661973	Telésforo_Santiago_Enríquez
60813781	Telescore_750
62012700	Teleshovo
62024546	Telesnikovo
66603250	Telésforo_Isaac
67133360	Telesonix
67559716	Telestas
68490563	Teles_(mythology)
68836866	Telésforo_Pedraza_Ortega
69814476	Telescopium−Grus_Cloud
72980240	Telescopic_toilet
73553450	Telestereoscope
74457794	Telescopic_Sighting_System
74484806	Telescopus_finkeldeyi
74484900	Telescopus_gezirae
74485041	Telescopus_nigriceps
74485143	Telescopus_pulcher
74485240	Telescopus_tripolitanus
75643781	Telesfor_Banaszkiewicz
75917879	Telésforo_Báez
76217429	Telesforo_Álvarez
76369580	Teleseme
76545825	Telesforo_Chuidian
77548254	Teleservice
78874964	Telesphore_Richard_Mkude
80498852	Telesol
80541247	Telesonix_jamesii
80551751	Teles_Junior
80740610	Téléscaphe
80801599	Telesistema_Boliviano
81070984	Telésforo_Barahona
82169451	Telescene_Film_Group
82719593	TeleStream_(Ethio_Telecom)
83409961	Telescoping_(mathematics)
83438085	Telescoping_product
83533059	Telesfor_Badetko_Memorial
41893	Teletype_(disambiguation)
691202	Teletext_Ltd.
1009626	Teletex
1507684	Teletype_Model_33
1536216	Teletraffic_engineering
2000207	Telethon_Kids_Institute
2303149	Telethusa
3604265	Télétoon+
4515671	Teletouch
5174423	Teletoon_Retro
5595643	Teletype_Corporation
5735746	Teletambores_TV
5987053	Teletalk
9181564	Télétoon
10965168	Telethrio
12013546	Teletape_Studios
14534790	Télétoon_Rétro
14758298	Teletrol
14759812	Telethonin
19719153	Teletubbies_say_"Eh-oh!"
21014595	Teletigre
21255742	Teletoon+
22987942	Teletsunami
23210756	Teletón_(Chile)
24358560	Teletón
25888655	Teleta
25948677	Teletubbies_–_The_Album
27265038	Telethon_(Parks_and_Recreation)
28871462	TeleType_Co.
29738249	Teletrece
30629782	Telete
35401966	Teletype_Model_28
37753323	Télétoon_la_nuit
41021327	Teletruth
43791255	Teletrac
45300043	Teletransportation_paradox
49836812	Teletext_Holidays
51114725	Teletype_Model_37
58602386	Teletext_character_set
69391099	TeleTrusT
76184267	Teletext_ČT
79983819	Teletriumph_Awards
81544648	Teletl
83164352	Teletext_(Israel)
2004370	Teleuts
62922752	Teleut_language
66910305	Teleutaea
68456282	Teleutagoras
79232266	Teleunión
